%chk=D:\code\pywfn\tutori\mols\CH4_freq.chk
# freq hf/3-21g

Title Card Required

0 1
 C                  0.00000000    0.00000000    0.00000000
 H                  0.00000000   -0.00000000    1.07000000
 H                 -0.00000000   -1.00880567   -0.35666667
 H                 -0.87365134    0.50440284   -0.35666667
 H                  0.87365134    0.50440284   -0.35666667

