%chk=D:\code\pywfn\tutori\mols\erxi.chk
# hf/3-21g

Title Card Required

0 1
 C                 -0.44158654    0.63079420    0.00000000
 H                 -1.50752482    0.53765131    0.00000000
 C                  0.44158654   -0.63079420    0.00000000
 H                  1.50752482   -0.53765131    0.00000000
 C                 -0.13127679   -1.85896139    0.00000000
 H                 -1.19721507   -1.95210428    0.00000000
 H                  0.48235645   -2.73551957    0.00000000
 C                  0.13127679    1.85896139    0.00000000
 H                 -0.48235645    2.73551957    0.00000000
 H                  1.19721507    1.95210428    0.00000000

