%chk=D:\gfile\pywfn\C6H6.chk
# b3lyp/6-31g(d) pop=full gfinput iop(3/33=1)

Title Card Required

0 1
 C                  0.00000000    1.40140000    0.00000000
 C                  1.21364800    0.70070000    0.00000000
 C                  1.21364800   -0.70070000    0.00000000
 C                  0.00000000   -1.40140000    0.00000000
 C                 -1.21364800   -0.70070000    0.00000000
 C                 -1.21364800    0.70070000    0.00000000
 H                  0.00000000    2.47140000    0.00000000
 H                  2.14029500    1.23570000    0.00000000
 H                  2.14029500   -1.23570000    0.00000000
 H                  0.00000000   -2.47140000    0.00000000
 H                 -2.14029500   -1.23570000    0.00000000
 H                 -2.14029500    1.23570000    0.00000000

--Link1--

%chk=D:\code\pywfn\tutori\mols\erxi.chk
# hf/3-21g

Title Card Required

0 1
 C                 -0.44158654    0.63079420    0.00000000
 H                 -1.50752482    0.53765131    0.00000000
 C                  0.44158654   -0.63079420    0.00000000
 H                  1.50752482   -0.53765131    0.00000000
 C                 -0.13127679   -1.85896139    0.00000000
 H                 -1.19721507   -1.95210428    0.00000000
 H                  0.48235645   -2.73551957    0.00000000
 C                  0.13127679    1.85896139    0.00000000
 H                 -0.48235645    2.73551957    0.00000000
 H                  1.19721507    1.95210428    0.00000000

